32
autogenerated by Rowan at 2024-01-19 23:28:45.715759+00:00
Cl          0.19006056    0.25790492    2.58655500
 C         -0.60739791   -0.27595767    1.12806237
 C          0.00986803   -0.05793149   -0.10714141
 N          1.26860893    0.58631849   -0.17639968
 C          1.45531058    1.94713569   -0.31216982
 C          0.28391844    2.90060925   -0.39287040
 C          2.80808997    2.11887550   -0.33712000
 C          3.61854863    3.43253303   -0.45444253
 F          4.77890301    3.23827910   -1.11125314
 F          2.92746305    4.38690281   -1.12220204
 F          3.92564058    3.95483565    0.75718403
 N          3.45737505    0.89820355   -0.21549778
 C          2.52801895   -0.00761308   -0.12178768
 C          2.73968101   -1.45788705    0.02164065
 C          1.91514337   -2.53261447    0.10869918
 C          2.76767468   -3.69721103    0.23622428
 C          4.03652716   -3.22453952    0.21507351
Cl          5.56615162   -4.02243376    0.32038456
 O          4.03657627   -1.87308073    0.08594232
 C         -0.63055354   -0.49008539   -1.27219367
Cl          0.13869676   -0.22584830   -2.81715298
 C         -1.86382222   -1.13281703   -1.20628095
 C         -2.45968580   -1.34311068    0.03131999
 C         -1.84042990   -0.91849113    1.20055389
 H         -0.33091539    2.81950068    0.50235403
 H          0.64204019    3.92254329   -0.48303378
 H         -0.33438867    2.66910553   -1.25899291
 H          0.84056932   -2.54234576    0.08837460
 H          2.45519018   -4.72452545    0.32833177
 H         -2.34560275   -1.46376789   -2.11752987
 H         -3.41861939   -1.84421420    0.08525985
 H         -2.30403423   -1.08226860    2.16506410
