32
autogenerated by Rowan at 2024-01-19 15:57:00.806723+00:00
Cl          0.64143687   -1.98428428   -2.67462635
 C          2.32919550   -2.03789139   -2.18766832
 C          2.85948110   -1.32730091   -1.06907797
 N          2.41419101   -0.02084908   -0.67795807
 C          2.83707380    0.75446409    0.42789462
 C          4.20150137    0.81485742    1.10990560
 C          1.92761052    1.75508392    0.54139173
 C          1.92534947    2.91996121    1.56235254
 F          2.26553559    2.49665952    2.80199051
 F          2.81165671    3.89133000    1.23033106
 F          0.71035689    3.49270701    1.64246988
 N          1.04970300    1.75356507   -0.53116482
 C          1.37232804    0.74889785   -1.27910495
 C          0.99773800    0.76721507   -2.71417165
 C          1.76562095    0.80258775   -3.82748127
 C          0.85709083    0.95972145   -4.94735527
 C         -0.38156351    1.02045047   -4.40403461
Cl         -1.94602358    1.20985699   -5.11557055
 O         -0.31287792    0.91482610   -3.04983258
 C          3.84957266   -2.06740141   -0.36261263
Cl          4.01030111   -2.05157375    1.38766897
 C          4.57218456   -3.08334517   -0.98457319
 C          4.24904871   -3.50594044   -2.26078677
 C          3.05791664   -3.05221772   -2.80165100
 H          4.95322418    0.26999792    0.55212969
 H          4.49279404    1.86391771    1.12390947
 H          4.18092680    0.46232587    2.13657308
 H          2.83812976    0.72154659   -3.88013029
 H          1.11484623    1.02145767   -5.99218512
 H          5.35734177   -3.57322526   -0.42414057
 H          4.82773924   -4.27324820   -2.75613856
 H          2.64241910   -3.51929235   -3.68482184
